!! General configuration
&HEAD CHID='Tunnel' TITLE='Test Case II ARTSS' /
&TIME T_BEGIN=0 /
&TIME T_END=3600 /

&REAC ID = 'propane reaction', SOOT_YIELD=0.1, CO_YIELD=0.05, FUEL='PROPANE'/
&MISC VISIBILITY_FACTOR=8.0/

!! Computational domain
!! &MESH XB=0, 40, 0, 6, 0, 4, IJK=100, 15, 10 /
!! &MESH XB=40, 50, 0, 6, 0, 4, IJK=50, 30, 20 /
!! &MESH XB=50, 55, 0, 6, 0, 4, IJK=50, 60, 40 /
!! &MESH XB=55, 65, 0, 6, 0, 4, IJK=50, 30, 20 /
!! &MESH XB=65, 105, 0, 6, 0, 4, IJK=100, 15, 10 /


raw input mesh: &MESH XB=0,105,0,6,0,4, IJK=1050,60,40 /
raw input decomposition: 10,6,4
raw ijk: IJK=1050,60,40
i: 1050, j: 60, k: 40
raw xb: XB=0,105,0,6,0,4
x: 0.0,105.0
y: 0.0,6.0
z: 0.0,4.0
decomposition: 10, 6, 4
lx: 105.0, dx: 10.5, di: 105
ly: 6.0000, dy: 1.0000, dj: 10
lz: 4.0000, dz: 1.0000, dk: 10
resulting number of meshes: 240
===========================
&MESH ID='1' IJK=105,10,10 XB=0.0000,10.5000,0.0000,1.0000,0.0000,1.0000 /
&MESH ID='2' IJK=105,10,10 XB=0.0000,10.5000,0.0000,1.0000,1.0000,2.0000 /
&MESH ID='3' IJK=105,10,10 XB=0.0000,10.5000,0.0000,1.0000,2.0000,3.0000 /
&MESH ID='4' IJK=105,10,10 XB=0.0000,10.5000,0.0000,1.0000,3.0000,4.0000 /
&MESH ID='5' IJK=105,10,10 XB=0.0000,10.5000,1.0000,2.0000,0.0000,1.0000 /
&MESH ID='6' IJK=105,10,10 XB=0.0000,10.5000,1.0000,2.0000,1.0000,2.0000 /
&MESH ID='7' IJK=105,10,10 XB=0.0000,10.5000,1.0000,2.0000,2.0000,3.0000 /
&MESH ID='8' IJK=105,10,10 XB=0.0000,10.5000,1.0000,2.0000,3.0000,4.0000 /
&MESH ID='9' IJK=105,10,10 XB=0.0000,10.5000,2.0000,3.0000,0.0000,1.0000 /
&MESH ID='10' IJK=105,10,10 XB=0.0000,10.5000,2.0000,3.0000,1.0000,2.0000 /
&MESH ID='11' IJK=105,10,10 XB=0.0000,10.5000,2.0000,3.0000,2.0000,3.0000 /
&MESH ID='12' IJK=105,10,10 XB=0.0000,10.5000,2.0000,3.0000,3.0000,4.0000 /
&MESH ID='13' IJK=105,10,10 XB=0.0000,10.5000,3.0000,4.0000,0.0000,1.0000 /
&MESH ID='14' IJK=105,10,10 XB=0.0000,10.5000,3.0000,4.0000,1.0000,2.0000 /
&MESH ID='15' IJK=105,10,10 XB=0.0000,10.5000,3.0000,4.0000,2.0000,3.0000 /
&MESH ID='16' IJK=105,10,10 XB=0.0000,10.5000,3.0000,4.0000,3.0000,4.0000 /
&MESH ID='17' IJK=105,10,10 XB=0.0000,10.5000,4.0000,5.0000,0.0000,1.0000 /
&MESH ID='18' IJK=105,10,10 XB=0.0000,10.5000,4.0000,5.0000,1.0000,2.0000 /
&MESH ID='19' IJK=105,10,10 XB=0.0000,10.5000,4.0000,5.0000,2.0000,3.0000 /
&MESH ID='20' IJK=105,10,10 XB=0.0000,10.5000,4.0000,5.0000,3.0000,4.0000 /
&MESH ID='21' IJK=105,10,10 XB=0.0000,10.5000,5.0000,6.0000,0.0000,1.0000 /
&MESH ID='22' IJK=105,10,10 XB=0.0000,10.5000,5.0000,6.0000,1.0000,2.0000 /
&MESH ID='23' IJK=105,10,10 XB=0.0000,10.5000,5.0000,6.0000,2.0000,3.0000 /
&MESH ID='24' IJK=105,10,10 XB=0.0000,10.5000,5.0000,6.0000,3.0000,4.0000 /
&MESH ID='25' IJK=105,10,10 XB=10.5000,21.0000,0.0000,1.0000,0.0000,1.0000 /
&MESH ID='26' IJK=105,10,10 XB=10.5000,21.0000,0.0000,1.0000,1.0000,2.0000 /
&MESH ID='27' IJK=105,10,10 XB=10.5000,21.0000,0.0000,1.0000,2.0000,3.0000 /
&MESH ID='28' IJK=105,10,10 XB=10.5000,21.0000,0.0000,1.0000,3.0000,4.0000 /
&MESH ID='29' IJK=105,10,10 XB=10.5000,21.0000,1.0000,2.0000,0.0000,1.0000 /
&MESH ID='30' IJK=105,10,10 XB=10.5000,21.0000,1.0000,2.0000,1.0000,2.0000 /
&MESH ID='31' IJK=105,10,10 XB=10.5000,21.0000,1.0000,2.0000,2.0000,3.0000 /
&MESH ID='32' IJK=105,10,10 XB=10.5000,21.0000,1.0000,2.0000,3.0000,4.0000 /
&MESH ID='33' IJK=105,10,10 XB=10.5000,21.0000,2.0000,3.0000,0.0000,1.0000 /
&MESH ID='34' IJK=105,10,10 XB=10.5000,21.0000,2.0000,3.0000,1.0000,2.0000 /
&MESH ID='35' IJK=105,10,10 XB=10.5000,21.0000,2.0000,3.0000,2.0000,3.0000 /
&MESH ID='36' IJK=105,10,10 XB=10.5000,21.0000,2.0000,3.0000,3.0000,4.0000 /
&MESH ID='37' IJK=105,10,10 XB=10.5000,21.0000,3.0000,4.0000,0.0000,1.0000 /
&MESH ID='38' IJK=105,10,10 XB=10.5000,21.0000,3.0000,4.0000,1.0000,2.0000 /
&MESH ID='39' IJK=105,10,10 XB=10.5000,21.0000,3.0000,4.0000,2.0000,3.0000 /
&MESH ID='40' IJK=105,10,10 XB=10.5000,21.0000,3.0000,4.0000,3.0000,4.0000 /
&MESH ID='41' IJK=105,10,10 XB=10.5000,21.0000,4.0000,5.0000,0.0000,1.0000 /
&MESH ID='42' IJK=105,10,10 XB=10.5000,21.0000,4.0000,5.0000,1.0000,2.0000 /
&MESH ID='43' IJK=105,10,10 XB=10.5000,21.0000,4.0000,5.0000,2.0000,3.0000 /
&MESH ID='44' IJK=105,10,10 XB=10.5000,21.0000,4.0000,5.0000,3.0000,4.0000 /
&MESH ID='45' IJK=105,10,10 XB=10.5000,21.0000,5.0000,6.0000,0.0000,1.0000 /
&MESH ID='46' IJK=105,10,10 XB=10.5000,21.0000,5.0000,6.0000,1.0000,2.0000 /
&MESH ID='47' IJK=105,10,10 XB=10.5000,21.0000,5.0000,6.0000,2.0000,3.0000 /
&MESH ID='48' IJK=105,10,10 XB=10.5000,21.0000,5.0000,6.0000,3.0000,4.0000 /
&MESH ID='49' IJK=105,10,10 XB=21.0000,31.5000,0.0000,1.0000,0.0000,1.0000 /
&MESH ID='50' IJK=105,10,10 XB=21.0000,31.5000,0.0000,1.0000,1.0000,2.0000 /
&MESH ID='51' IJK=105,10,10 XB=21.0000,31.5000,0.0000,1.0000,2.0000,3.0000 /
&MESH ID='52' IJK=105,10,10 XB=21.0000,31.5000,0.0000,1.0000,3.0000,4.0000 /
&MESH ID='53' IJK=105,10,10 XB=21.0000,31.5000,1.0000,2.0000,0.0000,1.0000 /
&MESH ID='54' IJK=105,10,10 XB=21.0000,31.5000,1.0000,2.0000,1.0000,2.0000 /
&MESH ID='55' IJK=105,10,10 XB=21.0000,31.5000,1.0000,2.0000,2.0000,3.0000 /
&MESH ID='56' IJK=105,10,10 XB=21.0000,31.5000,1.0000,2.0000,3.0000,4.0000 /
&MESH ID='57' IJK=105,10,10 XB=21.0000,31.5000,2.0000,3.0000,0.0000,1.0000 /
&MESH ID='58' IJK=105,10,10 XB=21.0000,31.5000,2.0000,3.0000,1.0000,2.0000 /
&MESH ID='59' IJK=105,10,10 XB=21.0000,31.5000,2.0000,3.0000,2.0000,3.0000 /
&MESH ID='60' IJK=105,10,10 XB=21.0000,31.5000,2.0000,3.0000,3.0000,4.0000 /
&MESH ID='61' IJK=105,10,10 XB=21.0000,31.5000,3.0000,4.0000,0.0000,1.0000 /
&MESH ID='62' IJK=105,10,10 XB=21.0000,31.5000,3.0000,4.0000,1.0000,2.0000 /
&MESH ID='63' IJK=105,10,10 XB=21.0000,31.5000,3.0000,4.0000,2.0000,3.0000 /
&MESH ID='64' IJK=105,10,10 XB=21.0000,31.5000,3.0000,4.0000,3.0000,4.0000 /
&MESH ID='65' IJK=105,10,10 XB=21.0000,31.5000,4.0000,5.0000,0.0000,1.0000 /
&MESH ID='66' IJK=105,10,10 XB=21.0000,31.5000,4.0000,5.0000,1.0000,2.0000 /
&MESH ID='67' IJK=105,10,10 XB=21.0000,31.5000,4.0000,5.0000,2.0000,3.0000 /
&MESH ID='68' IJK=105,10,10 XB=21.0000,31.5000,4.0000,5.0000,3.0000,4.0000 /
&MESH ID='69' IJK=105,10,10 XB=21.0000,31.5000,5.0000,6.0000,0.0000,1.0000 /
&MESH ID='70' IJK=105,10,10 XB=21.0000,31.5000,5.0000,6.0000,1.0000,2.0000 /
&MESH ID='71' IJK=105,10,10 XB=21.0000,31.5000,5.0000,6.0000,2.0000,3.0000 /
&MESH ID='72' IJK=105,10,10 XB=21.0000,31.5000,5.0000,6.0000,3.0000,4.0000 /
&MESH ID='73' IJK=105,10,10 XB=31.5000,42.0000,0.0000,1.0000,0.0000,1.0000 /
&MESH ID='74' IJK=105,10,10 XB=31.5000,42.0000,0.0000,1.0000,1.0000,2.0000 /
&MESH ID='75' IJK=105,10,10 XB=31.5000,42.0000,0.0000,1.0000,2.0000,3.0000 /
&MESH ID='76' IJK=105,10,10 XB=31.5000,42.0000,0.0000,1.0000,3.0000,4.0000 /
&MESH ID='77' IJK=105,10,10 XB=31.5000,42.0000,1.0000,2.0000,0.0000,1.0000 /
&MESH ID='78' IJK=105,10,10 XB=31.5000,42.0000,1.0000,2.0000,1.0000,2.0000 /
&MESH ID='79' IJK=105,10,10 XB=31.5000,42.0000,1.0000,2.0000,2.0000,3.0000 /
&MESH ID='80' IJK=105,10,10 XB=31.5000,42.0000,1.0000,2.0000,3.0000,4.0000 /
&MESH ID='81' IJK=105,10,10 XB=31.5000,42.0000,2.0000,3.0000,0.0000,1.0000 /
&MESH ID='82' IJK=105,10,10 XB=31.5000,42.0000,2.0000,3.0000,1.0000,2.0000 /
&MESH ID='83' IJK=105,10,10 XB=31.5000,42.0000,2.0000,3.0000,2.0000,3.0000 /
&MESH ID='84' IJK=105,10,10 XB=31.5000,42.0000,2.0000,3.0000,3.0000,4.0000 /
&MESH ID='85' IJK=105,10,10 XB=31.5000,42.0000,3.0000,4.0000,0.0000,1.0000 /
&MESH ID='86' IJK=105,10,10 XB=31.5000,42.0000,3.0000,4.0000,1.0000,2.0000 /
&MESH ID='87' IJK=105,10,10 XB=31.5000,42.0000,3.0000,4.0000,2.0000,3.0000 /
&MESH ID='88' IJK=105,10,10 XB=31.5000,42.0000,3.0000,4.0000,3.0000,4.0000 /
&MESH ID='89' IJK=105,10,10 XB=31.5000,42.0000,4.0000,5.0000,0.0000,1.0000 /
&MESH ID='90' IJK=105,10,10 XB=31.5000,42.0000,4.0000,5.0000,1.0000,2.0000 /
&MESH ID='91' IJK=105,10,10 XB=31.5000,42.0000,4.0000,5.0000,2.0000,3.0000 /
&MESH ID='92' IJK=105,10,10 XB=31.5000,42.0000,4.0000,5.0000,3.0000,4.0000 /
&MESH ID='93' IJK=105,10,10 XB=31.5000,42.0000,5.0000,6.0000,0.0000,1.0000 /
&MESH ID='94' IJK=105,10,10 XB=31.5000,42.0000,5.0000,6.0000,1.0000,2.0000 /
&MESH ID='95' IJK=105,10,10 XB=31.5000,42.0000,5.0000,6.0000,2.0000,3.0000 /
&MESH ID='96' IJK=105,10,10 XB=31.5000,42.0000,5.0000,6.0000,3.0000,4.0000 /
&MESH ID='97' IJK=105,10,10 XB=42.0000,52.5000,0.0000,1.0000,0.0000,1.0000 /
&MESH ID='98' IJK=105,10,10 XB=42.0000,52.5000,0.0000,1.0000,1.0000,2.0000 /
&MESH ID='99' IJK=105,10,10 XB=42.0000,52.5000,0.0000,1.0000,2.0000,3.0000 /
&MESH ID='100' IJK=105,10,10 XB=42.0000,52.5000,0.0000,1.0000,3.0000,4.0000 /
&MESH ID='101' IJK=105,10,10 XB=42.0000,52.5000,1.0000,2.0000,0.0000,1.0000 /
&MESH ID='102' IJK=105,10,10 XB=42.0000,52.5000,1.0000,2.0000,1.0000,2.0000 /
&MESH ID='103' IJK=105,10,10 XB=42.0000,52.5000,1.0000,2.0000,2.0000,3.0000 /
&MESH ID='104' IJK=105,10,10 XB=42.0000,52.5000,1.0000,2.0000,3.0000,4.0000 /
&MESH ID='105' IJK=105,10,10 XB=42.0000,52.5000,2.0000,3.0000,0.0000,1.0000 /
&MESH ID='106' IJK=105,10,10 XB=42.0000,52.5000,2.0000,3.0000,1.0000,2.0000 /
&MESH ID='107' IJK=105,10,10 XB=42.0000,52.5000,2.0000,3.0000,2.0000,3.0000 /
&MESH ID='108' IJK=105,10,10 XB=42.0000,52.5000,2.0000,3.0000,3.0000,4.0000 /
&MESH ID='109' IJK=105,10,10 XB=42.0000,52.5000,3.0000,4.0000,0.0000,1.0000 /
&MESH ID='110' IJK=105,10,10 XB=42.0000,52.5000,3.0000,4.0000,1.0000,2.0000 /
&MESH ID='111' IJK=105,10,10 XB=42.0000,52.5000,3.0000,4.0000,2.0000,3.0000 /
&MESH ID='112' IJK=105,10,10 XB=42.0000,52.5000,3.0000,4.0000,3.0000,4.0000 /
&MESH ID='113' IJK=105,10,10 XB=42.0000,52.5000,4.0000,5.0000,0.0000,1.0000 /
&MESH ID='114' IJK=105,10,10 XB=42.0000,52.5000,4.0000,5.0000,1.0000,2.0000 /
&MESH ID='115' IJK=105,10,10 XB=42.0000,52.5000,4.0000,5.0000,2.0000,3.0000 /
&MESH ID='116' IJK=105,10,10 XB=42.0000,52.5000,4.0000,5.0000,3.0000,4.0000 /
&MESH ID='117' IJK=105,10,10 XB=42.0000,52.5000,5.0000,6.0000,0.0000,1.0000 /
&MESH ID='118' IJK=105,10,10 XB=42.0000,52.5000,5.0000,6.0000,1.0000,2.0000 /
&MESH ID='119' IJK=105,10,10 XB=42.0000,52.5000,5.0000,6.0000,2.0000,3.0000 /
&MESH ID='120' IJK=105,10,10 XB=42.0000,52.5000,5.0000,6.0000,3.0000,4.0000 /
&MESH ID='121' IJK=105,10,10 XB=52.5000,63.0000,0.0000,1.0000,0.0000,1.0000 /
&MESH ID='122' IJK=105,10,10 XB=52.5000,63.0000,0.0000,1.0000,1.0000,2.0000 /
&MESH ID='123' IJK=105,10,10 XB=52.5000,63.0000,0.0000,1.0000,2.0000,3.0000 /
&MESH ID='124' IJK=105,10,10 XB=52.5000,63.0000,0.0000,1.0000,3.0000,4.0000 /
&MESH ID='125' IJK=105,10,10 XB=52.5000,63.0000,1.0000,2.0000,0.0000,1.0000 /
&MESH ID='126' IJK=105,10,10 XB=52.5000,63.0000,1.0000,2.0000,1.0000,2.0000 /
&MESH ID='127' IJK=105,10,10 XB=52.5000,63.0000,1.0000,2.0000,2.0000,3.0000 /
&MESH ID='128' IJK=105,10,10 XB=52.5000,63.0000,1.0000,2.0000,3.0000,4.0000 /
&MESH ID='129' IJK=105,10,10 XB=52.5000,63.0000,2.0000,3.0000,0.0000,1.0000 /
&MESH ID='130' IJK=105,10,10 XB=52.5000,63.0000,2.0000,3.0000,1.0000,2.0000 /
&MESH ID='131' IJK=105,10,10 XB=52.5000,63.0000,2.0000,3.0000,2.0000,3.0000 /
&MESH ID='132' IJK=105,10,10 XB=52.5000,63.0000,2.0000,3.0000,3.0000,4.0000 /
&MESH ID='133' IJK=105,10,10 XB=52.5000,63.0000,3.0000,4.0000,0.0000,1.0000 /
&MESH ID='134' IJK=105,10,10 XB=52.5000,63.0000,3.0000,4.0000,1.0000,2.0000 /
&MESH ID='135' IJK=105,10,10 XB=52.5000,63.0000,3.0000,4.0000,2.0000,3.0000 /
&MESH ID='136' IJK=105,10,10 XB=52.5000,63.0000,3.0000,4.0000,3.0000,4.0000 /
&MESH ID='137' IJK=105,10,10 XB=52.5000,63.0000,4.0000,5.0000,0.0000,1.0000 /
&MESH ID='138' IJK=105,10,10 XB=52.5000,63.0000,4.0000,5.0000,1.0000,2.0000 /
&MESH ID='139' IJK=105,10,10 XB=52.5000,63.0000,4.0000,5.0000,2.0000,3.0000 /
&MESH ID='140' IJK=105,10,10 XB=52.5000,63.0000,4.0000,5.0000,3.0000,4.0000 /
&MESH ID='141' IJK=105,10,10 XB=52.5000,63.0000,5.0000,6.0000,0.0000,1.0000 /
&MESH ID='142' IJK=105,10,10 XB=52.5000,63.0000,5.0000,6.0000,1.0000,2.0000 /
&MESH ID='143' IJK=105,10,10 XB=52.5000,63.0000,5.0000,6.0000,2.0000,3.0000 /
&MESH ID='144' IJK=105,10,10 XB=52.5000,63.0000,5.0000,6.0000,3.0000,4.0000 /
&MESH ID='145' IJK=105,10,10 XB=63.0000,73.5000,0.0000,1.0000,0.0000,1.0000 /
&MESH ID='146' IJK=105,10,10 XB=63.0000,73.5000,0.0000,1.0000,1.0000,2.0000 /
&MESH ID='147' IJK=105,10,10 XB=63.0000,73.5000,0.0000,1.0000,2.0000,3.0000 /
&MESH ID='148' IJK=105,10,10 XB=63.0000,73.5000,0.0000,1.0000,3.0000,4.0000 /
&MESH ID='149' IJK=105,10,10 XB=63.0000,73.5000,1.0000,2.0000,0.0000,1.0000 /
&MESH ID='150' IJK=105,10,10 XB=63.0000,73.5000,1.0000,2.0000,1.0000,2.0000 /
&MESH ID='151' IJK=105,10,10 XB=63.0000,73.5000,1.0000,2.0000,2.0000,3.0000 /
&MESH ID='152' IJK=105,10,10 XB=63.0000,73.5000,1.0000,2.0000,3.0000,4.0000 /
&MESH ID='153' IJK=105,10,10 XB=63.0000,73.5000,2.0000,3.0000,0.0000,1.0000 /
&MESH ID='154' IJK=105,10,10 XB=63.0000,73.5000,2.0000,3.0000,1.0000,2.0000 /
&MESH ID='155' IJK=105,10,10 XB=63.0000,73.5000,2.0000,3.0000,2.0000,3.0000 /
&MESH ID='156' IJK=105,10,10 XB=63.0000,73.5000,2.0000,3.0000,3.0000,4.0000 /
&MESH ID='157' IJK=105,10,10 XB=63.0000,73.5000,3.0000,4.0000,0.0000,1.0000 /
&MESH ID='158' IJK=105,10,10 XB=63.0000,73.5000,3.0000,4.0000,1.0000,2.0000 /
&MESH ID='159' IJK=105,10,10 XB=63.0000,73.5000,3.0000,4.0000,2.0000,3.0000 /
&MESH ID='160' IJK=105,10,10 XB=63.0000,73.5000,3.0000,4.0000,3.0000,4.0000 /
&MESH ID='161' IJK=105,10,10 XB=63.0000,73.5000,4.0000,5.0000,0.0000,1.0000 /
&MESH ID='162' IJK=105,10,10 XB=63.0000,73.5000,4.0000,5.0000,1.0000,2.0000 /
&MESH ID='163' IJK=105,10,10 XB=63.0000,73.5000,4.0000,5.0000,2.0000,3.0000 /
&MESH ID='164' IJK=105,10,10 XB=63.0000,73.5000,4.0000,5.0000,3.0000,4.0000 /
&MESH ID='165' IJK=105,10,10 XB=63.0000,73.5000,5.0000,6.0000,0.0000,1.0000 /
&MESH ID='166' IJK=105,10,10 XB=63.0000,73.5000,5.0000,6.0000,1.0000,2.0000 /
&MESH ID='167' IJK=105,10,10 XB=63.0000,73.5000,5.0000,6.0000,2.0000,3.0000 /
&MESH ID='168' IJK=105,10,10 XB=63.0000,73.5000,5.0000,6.0000,3.0000,4.0000 /
&MESH ID='169' IJK=105,10,10 XB=73.5000,84.0000,0.0000,1.0000,0.0000,1.0000 /
&MESH ID='170' IJK=105,10,10 XB=73.5000,84.0000,0.0000,1.0000,1.0000,2.0000 /
&MESH ID='171' IJK=105,10,10 XB=73.5000,84.0000,0.0000,1.0000,2.0000,3.0000 /
&MESH ID='172' IJK=105,10,10 XB=73.5000,84.0000,0.0000,1.0000,3.0000,4.0000 /
&MESH ID='173' IJK=105,10,10 XB=73.5000,84.0000,1.0000,2.0000,0.0000,1.0000 /
&MESH ID='174' IJK=105,10,10 XB=73.5000,84.0000,1.0000,2.0000,1.0000,2.0000 /
&MESH ID='175' IJK=105,10,10 XB=73.5000,84.0000,1.0000,2.0000,2.0000,3.0000 /
&MESH ID='176' IJK=105,10,10 XB=73.5000,84.0000,1.0000,2.0000,3.0000,4.0000 /
&MESH ID='177' IJK=105,10,10 XB=73.5000,84.0000,2.0000,3.0000,0.0000,1.0000 /
&MESH ID='178' IJK=105,10,10 XB=73.5000,84.0000,2.0000,3.0000,1.0000,2.0000 /
&MESH ID='179' IJK=105,10,10 XB=73.5000,84.0000,2.0000,3.0000,2.0000,3.0000 /
&MESH ID='180' IJK=105,10,10 XB=73.5000,84.0000,2.0000,3.0000,3.0000,4.0000 /
&MESH ID='181' IJK=105,10,10 XB=73.5000,84.0000,3.0000,4.0000,0.0000,1.0000 /
&MESH ID='182' IJK=105,10,10 XB=73.5000,84.0000,3.0000,4.0000,1.0000,2.0000 /
&MESH ID='183' IJK=105,10,10 XB=73.5000,84.0000,3.0000,4.0000,2.0000,3.0000 /
&MESH ID='184' IJK=105,10,10 XB=73.5000,84.0000,3.0000,4.0000,3.0000,4.0000 /
&MESH ID='185' IJK=105,10,10 XB=73.5000,84.0000,4.0000,5.0000,0.0000,1.0000 /
&MESH ID='186' IJK=105,10,10 XB=73.5000,84.0000,4.0000,5.0000,1.0000,2.0000 /
&MESH ID='187' IJK=105,10,10 XB=73.5000,84.0000,4.0000,5.0000,2.0000,3.0000 /
&MESH ID='188' IJK=105,10,10 XB=73.5000,84.0000,4.0000,5.0000,3.0000,4.0000 /
&MESH ID='189' IJK=105,10,10 XB=73.5000,84.0000,5.0000,6.0000,0.0000,1.0000 /
&MESH ID='190' IJK=105,10,10 XB=73.5000,84.0000,5.0000,6.0000,1.0000,2.0000 /
&MESH ID='191' IJK=105,10,10 XB=73.5000,84.0000,5.0000,6.0000,2.0000,3.0000 /
&MESH ID='192' IJK=105,10,10 XB=73.5000,84.0000,5.0000,6.0000,3.0000,4.0000 /
&MESH ID='193' IJK=105,10,10 XB=84.0000,94.5000,0.0000,1.0000,0.0000,1.0000 /
&MESH ID='194' IJK=105,10,10 XB=84.0000,94.5000,0.0000,1.0000,1.0000,2.0000 /
&MESH ID='195' IJK=105,10,10 XB=84.0000,94.5000,0.0000,1.0000,2.0000,3.0000 /
&MESH ID='196' IJK=105,10,10 XB=84.0000,94.5000,0.0000,1.0000,3.0000,4.0000 /
&MESH ID='197' IJK=105,10,10 XB=84.0000,94.5000,1.0000,2.0000,0.0000,1.0000 /
&MESH ID='198' IJK=105,10,10 XB=84.0000,94.5000,1.0000,2.0000,1.0000,2.0000 /
&MESH ID='199' IJK=105,10,10 XB=84.0000,94.5000,1.0000,2.0000,2.0000,3.0000 /
&MESH ID='200' IJK=105,10,10 XB=84.0000,94.5000,1.0000,2.0000,3.0000,4.0000 /
&MESH ID='201' IJK=105,10,10 XB=84.0000,94.5000,2.0000,3.0000,0.0000,1.0000 /
&MESH ID='202' IJK=105,10,10 XB=84.0000,94.5000,2.0000,3.0000,1.0000,2.0000 /
&MESH ID='203' IJK=105,10,10 XB=84.0000,94.5000,2.0000,3.0000,2.0000,3.0000 /
&MESH ID='204' IJK=105,10,10 XB=84.0000,94.5000,2.0000,3.0000,3.0000,4.0000 /
&MESH ID='205' IJK=105,10,10 XB=84.0000,94.5000,3.0000,4.0000,0.0000,1.0000 /
&MESH ID='206' IJK=105,10,10 XB=84.0000,94.5000,3.0000,4.0000,1.0000,2.0000 /
&MESH ID='207' IJK=105,10,10 XB=84.0000,94.5000,3.0000,4.0000,2.0000,3.0000 /
&MESH ID='208' IJK=105,10,10 XB=84.0000,94.5000,3.0000,4.0000,3.0000,4.0000 /
&MESH ID='209' IJK=105,10,10 XB=84.0000,94.5000,4.0000,5.0000,0.0000,1.0000 /
&MESH ID='210' IJK=105,10,10 XB=84.0000,94.5000,4.0000,5.0000,1.0000,2.0000 /
&MESH ID='211' IJK=105,10,10 XB=84.0000,94.5000,4.0000,5.0000,2.0000,3.0000 /
&MESH ID='212' IJK=105,10,10 XB=84.0000,94.5000,4.0000,5.0000,3.0000,4.0000 /
&MESH ID='213' IJK=105,10,10 XB=84.0000,94.5000,5.0000,6.0000,0.0000,1.0000 /
&MESH ID='214' IJK=105,10,10 XB=84.0000,94.5000,5.0000,6.0000,1.0000,2.0000 /
&MESH ID='215' IJK=105,10,10 XB=84.0000,94.5000,5.0000,6.0000,2.0000,3.0000 /
&MESH ID='216' IJK=105,10,10 XB=84.0000,94.5000,5.0000,6.0000,3.0000,4.0000 /
&MESH ID='217' IJK=105,10,10 XB=94.5000,105.0000,0.0000,1.0000,0.0000,1.0000 /
&MESH ID='218' IJK=105,10,10 XB=94.5000,105.0000,0.0000,1.0000,1.0000,2.0000 /
&MESH ID='219' IJK=105,10,10 XB=94.5000,105.0000,0.0000,1.0000,2.0000,3.0000 /
&MESH ID='220' IJK=105,10,10 XB=94.5000,105.0000,0.0000,1.0000,3.0000,4.0000 /
&MESH ID='221' IJK=105,10,10 XB=94.5000,105.0000,1.0000,2.0000,0.0000,1.0000 /
&MESH ID='222' IJK=105,10,10 XB=94.5000,105.0000,1.0000,2.0000,1.0000,2.0000 /
&MESH ID='223' IJK=105,10,10 XB=94.5000,105.0000,1.0000,2.0000,2.0000,3.0000 /
&MESH ID='224' IJK=105,10,10 XB=94.5000,105.0000,1.0000,2.0000,3.0000,4.0000 /
&MESH ID='225' IJK=105,10,10 XB=94.5000,105.0000,2.0000,3.0000,0.0000,1.0000 /
&MESH ID='226' IJK=105,10,10 XB=94.5000,105.0000,2.0000,3.0000,1.0000,2.0000 /
&MESH ID='227' IJK=105,10,10 XB=94.5000,105.0000,2.0000,3.0000,2.0000,3.0000 /
&MESH ID='228' IJK=105,10,10 XB=94.5000,105.0000,2.0000,3.0000,3.0000,4.0000 /
&MESH ID='229' IJK=105,10,10 XB=94.5000,105.0000,3.0000,4.0000,0.0000,1.0000 /
&MESH ID='230' IJK=105,10,10 XB=94.5000,105.0000,3.0000,4.0000,1.0000,2.0000 /
&MESH ID='231' IJK=105,10,10 XB=94.5000,105.0000,3.0000,4.0000,2.0000,3.0000 /
&MESH ID='232' IJK=105,10,10 XB=94.5000,105.0000,3.0000,4.0000,3.0000,4.0000 /
&MESH ID='233' IJK=105,10,10 XB=94.5000,105.0000,4.0000,5.0000,0.0000,1.0000 /
&MESH ID='234' IJK=105,10,10 XB=94.5000,105.0000,4.0000,5.0000,1.0000,2.0000 /
&MESH ID='235' IJK=105,10,10 XB=94.5000,105.0000,4.0000,5.0000,2.0000,3.0000 /
&MESH ID='236' IJK=105,10,10 XB=94.5000,105.0000,4.0000,5.0000,3.0000,4.0000 /
&MESH ID='237' IJK=105,10,10 XB=94.5000,105.0000,5.0000,6.0000,0.0000,1.0000 /
&MESH ID='238' IJK=105,10,10 XB=94.5000,105.0000,5.0000,6.0000,1.0000,2.0000 /
&MESH ID='239' IJK=105,10,10 XB=94.5000,105.0000,5.0000,6.0000,2.0000,3.0000 /
&MESH ID='240' IJK=105,10,10 XB=94.5000,105.0000,5.0000,6.0000,3.0000,4.0000 /



!! Properties
&MATL ID='CONCRETE', CONDUCTIVITY=1.0, SPECIFIC_HEAT=0.88, DENSITY=2100 /
&MATL ID='CARPET', CONDUCTIVITY=1.0, SPECIFIC_HEAT=0.88, DENSITY=2100 /

&SURF ID='WALL', MATL_ID='CONCRETE', COLOR='GRAY', THICKNESS=0.1 /
&SURF ID='FLOOR', MATL_ID='CARPET', COLOR='BROWN', THICKNESS=0.1 /
&SURF ID='CEILING', MATL_ID='CONCRETE', COLOR='KHAKI', THICKNESS=0.1 /
&SURF ID='OPEN', COLOR='INVISIBLE' /

!! Solid geometry
&OBST XB=1.2, 103.8, 0, 0, 0, 4, SURF_ID='WALL' /
&OBST XB=1.2, 103.8, 6, 6, 0, 4, SURF_ID='WALL' /

&OBST XB=1.2, 103.8, 0, 6, 0, 0, SURF_ID='FLOOR' /
&OBST XB=1.2, 103.8, 0, 6, 4, 4, SURF_ID='CEILING' /


!! Vents
&VENT XB=0,1.2,0,6,0,0, SURF_ID='OPEN' /
&VENT XB=0,1.2,0,6,4,4, SURF_ID='OPEN' /
&VENT XB=0,1.2,0,0,0,4, SURF_ID='OPEN' /
&VENT XB=0,1.2,6,6,0,4, SURF_ID='OPEN' /
&VENT XB=0,0,0,6,0,4, SURF_ID='OPEN' /

&VENT XB=103.8,105,0,6,0,0, SURF_ID='OPEN' /
&VENT XB=103.8,105,0,6,4,4, SURF_ID='OPEN' /
&VENT XB=103.8,105,0,0,0,4, SURF_ID='OPEN' /
&VENT XB=103.8,105,6,6,0,4, SURF_ID='OPEN' /
&VENT XB=105,105,0,6,0,4, SURF_ID='OPEN' /


!! Fire
&OBST XB=51, 54, 0.5, 5.5, 0, 0.1, SURF_ID='WALL' /
&VENT XB=51, 54, 0.5, 5.5, 0.1, 0.1, SURF_ID='FIRE', XYZ=51,0.5,0.1, SPREAD_RATE=0.07 /
&SURF ID='FIRE', HRRPUA=500.0 /

!! Output
&PROP ID='SP-CORRIENTE', QUANTITY='SPRINKLER LINK TEMPERATURE', RTI=80.0, ACTIVATION_TEMPERATURE=68.0, SMOKEVIEW_ID='sprinkler_pendent' /

!! Output
&DEVC ID='Temperature00', XYZ=5.0, 2.0, 3.9, QUANTITY='TEMPERATURE' /
&DEVC ID='Temperature01', XYZ=5.0, 4.0, 3.9, QUANTITY='TEMPERATURE' /
&DEVC ID='Temperature10', XYZ=10.0, 2.0, 3.9, QUANTITY='TEMPERATURE' /
&DEVC ID='Temperature11', XYZ=10.0, 4.0, 3.9, QUANTITY='TEMPERATURE' /
&DEVC ID='Temperature20', XYZ=15.0, 2.0, 3.9, QUANTITY='TEMPERATURE' /
&DEVC ID='Temperature21', XYZ=15.0, 4.0, 3.9, QUANTITY='TEMPERATURE' /
&DEVC ID='Temperature30', XYZ=20.0, 2.0, 3.9, QUANTITY='TEMPERATURE' /
&DEVC ID='Temperature31', XYZ=20.0, 4.0, 3.9, QUANTITY='TEMPERATURE' /
&DEVC ID='Temperature40', XYZ=25.0, 2.0, 3.9, QUANTITY='TEMPERATURE' /
&DEVC ID='Temperature41', XYZ=25.0, 4.0, 3.9, QUANTITY='TEMPERATURE' /
&DEVC ID='Temperature50', XYZ=30.0, 2.0, 3.9, QUANTITY='TEMPERATURE' /
&DEVC ID='Temperature51', XYZ=30.0, 4.0, 3.9, QUANTITY='TEMPERATURE' /
&DEVC ID='Temperature60', XYZ=35.0, 2.0, 3.9, QUANTITY='TEMPERATURE' /
&DEVC ID='Temperature61', XYZ=35.0, 4.0, 3.9, QUANTITY='TEMPERATURE' /
&DEVC ID='Temperature70', XYZ=40.0, 2.0, 3.9, QUANTITY='TEMPERATURE' /
&DEVC ID='Temperature71', XYZ=40.0, 4.0, 3.9, QUANTITY='TEMPERATURE' /
&DEVC ID='Temperature80', XYZ=45.0, 2.0, 3.9, QUANTITY='TEMPERATURE' /
&DEVC ID='Temperature81', XYZ=45.0, 4.0, 3.9, QUANTITY='TEMPERATURE' /
&DEVC ID='Temperature90', XYZ=50.0, 2.0, 3.9, QUANTITY='TEMPERATURE' /
&DEVC ID='Temperature91', XYZ=50.0, 4.0, 3.9, QUANTITY='TEMPERATURE' /
&DEVC ID='Temperature100', XYZ=55.0, 2.0, 3.9, QUANTITY='TEMPERATURE' /
&DEVC ID='Temperature101', XYZ=55.0, 4.0, 3.9, QUANTITY='TEMPERATURE' /
&DEVC ID='Temperature110', XYZ=60.0, 2.0, 3.9, QUANTITY='TEMPERATURE' /
&DEVC ID='Temperature111', XYZ=60.0, 4.0, 3.9, QUANTITY='TEMPERATURE' /
&DEVC ID='Temperature120', XYZ=65.0, 2.0, 3.9, QUANTITY='TEMPERATURE' /
&DEVC ID='Temperature121', XYZ=65.0, 4.0, 3.9, QUANTITY='TEMPERATURE' /
&DEVC ID='Temperature130', XYZ=70.0, 2.0, 3.9, QUANTITY='TEMPERATURE' /
&DEVC ID='Temperature131', XYZ=70.0, 4.0, 3.9, QUANTITY='TEMPERATURE' /
&DEVC ID='Temperature140', XYZ=75.0, 2.0, 3.9, QUANTITY='TEMPERATURE' /
&DEVC ID='Temperature141', XYZ=75.0, 4.0, 3.9, QUANTITY='TEMPERATURE' /
&DEVC ID='Temperature150', XYZ=80.0, 2.0, 3.9, QUANTITY='TEMPERATURE' /
&DEVC ID='Temperature151', XYZ=80.0, 4.0, 3.9, QUANTITY='TEMPERATURE' /
&DEVC ID='Temperature160', XYZ=85.0, 2.0, 3.9, QUANTITY='TEMPERATURE' /
&DEVC ID='Temperature161', XYZ=85.0, 4.0, 3.9, QUANTITY='TEMPERATURE' /
&DEVC ID='Temperature170', XYZ=90.0, 2.0, 3.9, QUANTITY='TEMPERATURE' /
&DEVC ID='Temperature171', XYZ=90.0, 4.0, 3.9, QUANTITY='TEMPERATURE' /
&DEVC ID='Temperature180', XYZ=95.0, 2.0, 3.9, QUANTITY='TEMPERATURE' /
&DEVC ID='Temperature181', XYZ=95.0, 4.0, 3.9, QUANTITY='TEMPERATURE' /

!! Output
&DEVC ID='Thermocouple00', XYZ=5.0, 2.0, 3.9, PROP_ID='SP-CORRIENTE' /
&DEVC ID='Thermocouple01', XYZ=5.0, 4.0, 3.9, PROP_ID='SP-CORRIENTE' /
&DEVC ID='Thermocouple10', XYZ=10.0, 2.0, 3.9, PROP_ID='SP-CORRIENTE' /
&DEVC ID='Thermocouple11', XYZ=10.0, 4.0, 3.9, PROP_ID='SP-CORRIENTE' /
&DEVC ID='Thermocouple20', XYZ=15.0, 2.0, 3.9, PROP_ID='SP-CORRIENTE' /
&DEVC ID='Thermocouple21', XYZ=15.0, 4.0, 3.9, PROP_ID='SP-CORRIENTE' /
&DEVC ID='Thermocouple30', XYZ=20.0, 2.0, 3.9, PROP_ID='SP-CORRIENTE' /
&DEVC ID='Thermocouple31', XYZ=20.0, 4.0, 3.9, PROP_ID='SP-CORRIENTE' /
&DEVC ID='Thermocouple40', XYZ=25.0, 2.0, 3.9, PROP_ID='SP-CORRIENTE' /
&DEVC ID='Thermocouple41', XYZ=25.0, 4.0, 3.9, PROP_ID='SP-CORRIENTE' /
&DEVC ID='Thermocouple50', XYZ=30.0, 2.0, 3.9, PROP_ID='SP-CORRIENTE' /
&DEVC ID='Thermocouple51', XYZ=30.0, 4.0, 3.9, PROP_ID='SP-CORRIENTE' /
&DEVC ID='Thermocouple60', XYZ=35.0, 2.0, 3.9, PROP_ID='SP-CORRIENTE' /
&DEVC ID='Thermocouple61', XYZ=35.0, 4.0, 3.9, PROP_ID='SP-CORRIENTE' /
&DEVC ID='Thermocouple70', XYZ=40.0, 2.0, 3.9, PROP_ID='SP-CORRIENTE' /
&DEVC ID='Thermocouple71', XYZ=40.0, 4.0, 3.9, PROP_ID='SP-CORRIENTE' /
&DEVC ID='Thermocouple80', XYZ=45.0, 2.0, 3.9, PROP_ID='SP-CORRIENTE' /
&DEVC ID='Thermocouple81', XYZ=45.0, 4.0, 3.9, PROP_ID='SP-CORRIENTE' /
&DEVC ID='Thermocouple90', XYZ=50.0, 2.0, 3.9, PROP_ID='SP-CORRIENTE' /
&DEVC ID='Thermocouple91', XYZ=50.0, 4.0, 3.9, PROP_ID='SP-CORRIENTE' /
&DEVC ID='Thermocouple100', XYZ=55.0, 2.0, 3.9, PROP_ID='SP-CORRIENTE' /
&DEVC ID='Thermocouple101', XYZ=55.0, 4.0, 3.9, PROP_ID='SP-CORRIENTE' /
&DEVC ID='Thermocouple110', XYZ=60.0, 2.0, 3.9, PROP_ID='SP-CORRIENTE' /
&DEVC ID='Thermocouple111', XYZ=60.0, 4.0, 3.9, PROP_ID='SP-CORRIENTE' /
&DEVC ID='Thermocouple120', XYZ=65.0, 2.0, 3.9, PROP_ID='SP-CORRIENTE' /
&DEVC ID='Thermocouple121', XYZ=65.0, 4.0, 3.9, PROP_ID='SP-CORRIENTE' /
&DEVC ID='Thermocouple130', XYZ=70.0, 2.0, 3.9, PROP_ID='SP-CORRIENTE' /
&DEVC ID='Thermocouple131', XYZ=70.0, 4.0, 3.9, PROP_ID='SP-CORRIENTE' /
&DEVC ID='Thermocouple140', XYZ=75.0, 2.0, 3.9, PROP_ID='SP-CORRIENTE' /
&DEVC ID='Thermocouple141', XYZ=75.0, 4.0, 3.9, PROP_ID='SP-CORRIENTE' /
&DEVC ID='Thermocouple150', XYZ=80.0, 2.0, 3.9, PROP_ID='SP-CORRIENTE' /
&DEVC ID='Thermocouple151', XYZ=80.0, 4.0, 3.9, PROP_ID='SP-CORRIENTE' /
&DEVC ID='Thermocouple160', XYZ=85.0, 2.0, 3.9, PROP_ID='SP-CORRIENTE' /
&DEVC ID='Thermocouple161', XYZ=85.0, 4.0, 3.9, PROP_ID='SP-CORRIENTE' /
&DEVC ID='Thermocouple170', XYZ=90.0, 2.0, 3.9, PROP_ID='SP-CORRIENTE' /
&DEVC ID='Thermocouple171', XYZ=90.0, 4.0, 3.9, PROP_ID='SP-CORRIENTE' /
&DEVC ID='Thermocouple180', XYZ=95.0, 2.0, 3.9, PROP_ID='SP-CORRIENTE' /
&DEVC ID='Thermocouple181', XYZ=95.0, 4.0, 3.9, PROP_ID='SP-CORRIENTE' /







&TAIL /